launcher/output/tcopflowout/t2.m
function mpc = t2

%%-----  Power Flow Data  -----%%
%% system MVA base
mpc.baseMVA = 100;

%% OPF objective
mpc.obj = 0;

%% OPF convergence status
mpc.converged = 1;

%% bus data
%	bus_i	type	Pd	Qd	Gs	Bs	area	Vm	Va	baseKV	zone	Vmax	Vmin	mult_Pmis	mult_Qmis	Pslack	Qslack
mpc.bus = [
	1	1	0	0	0	0	1	0.972753984	-0.809400826	115	2	1.1	0.9	1.14419424e-08	-1.48188745e-08	0	0;
	2	1	4.53806693	1.28957247	0	0	1	0.972678306	-0.818050948	115	2	1.1	0.9	1.53646433e-08	-1.3300488e-08	0	0;
	3	1	0	0	0	0	1	1.01183516	-4.05391674	115	4	1.1	0.9	-8.53332029e-08	-5.39793192e-07	0	0;
	4	1	1.06754843	0.301425439	0	0	1	1.01181928	-4.05579344	115	4	1.1	0.9	-8.44986109e-08	-5.39714623e-07	0	0;
	5	1	0	0	0	0	1	0.993293358	-2.55198119	115	6	1.1	0.9	-4.48620731e-08	-3.49266268e-07	0	0;
	6	1	4.68846154	1.33282051	0	0	1	0.993215807	-2.56053032	115	6	1.1	0.9	-4.09874334e-08	-3.48073543e-07	0	0;
	7	1	0	0	0	0	1	0.968629218	-1.29836735	115	2	1.1	0.9	1.74465252e-08	-7.33575254e-10	0	0;
	8	1	14.5783097	4.15733601	0	0	1	0.968396765	-1.32515445	115	2	1.1	0.9	3.01482558e-08	3.35221833e-09	0	0;
	9	1	0	0	0	0	1	0.970233102	-1.01036752	115	2	1.1	0.9	1.39964699e-08	-6.81176903e-09	0	0;
	10	1	26.2090253	7.46723869	0	0	1	0.969768996	-1.07102022	115	2	1.1	0.9	3.79893389e-08	5.88175994e-10	0	0;
	11	1	0	0	0	0	1	1.02483548	-3.12630162	115	4	1.1	0.9	-7.95820391e-08	-5.70940054e-07	0	0;
	12	1	0.188390899	0.0565172697	0	0	1	1.02483255	-3.12664825	115	4	1.1	0.9	-7.94885844e-08	-5.71279698e-07	0	0;
	13	1	1.58248355	0.452138158	0	0	1	1.02481001	-3.12926201	115	4	1.1	0.9	-7.83765113e-08	-5.70969031e-07	0	0;
	14	1	0	0	0	0	1	1.01508364	-2.49168416	230	4	1.1	0.9	-6.18531254e-08	-4.44399729e-07	0	0;
	15	1	0	0	0	30	1	1.02243219	-2.97962293	115	4	1.1	0.9	-6.68882317e-08	-4.88351195e-07	0	0;
	16	1	28.1079221	8.01289291	0	0	1	1.02202888	-3.02651111	115	4	1.1	0.9	-4.18410243e-08	-4.81491052e-07	0	0;
	17	1	0	0	0	0	1	0.989901912	-3.05406904	115	4	1.1	0.9	-3.10292869e-08	-2.2961137e-07	0	0;
	18	1	0.445858461	0.125593933	0	0	1	0.989894665	-3.0550556	115	4	1.1	0.9	-3.06392797e-08	-2.29336736e-07	0	0;
	19	1	0.483536641	0.138153326	0	0	1	0.989895104	-3.05489804	115	4	1.1	0.9	-3.06057779e-08	-2.29362704e-07	0	0;
	20	1	0.70960572	0.200950292	0	0	1	0.989890667	-3.05538124	115	4	1.1	0.9	-3.0414371e-08	-2.29299472e-07	0	0;
	21	1	2.89494015	0.82264026	0	0	1	0.989851029	-3.06044035	115	4	1.1	0.9	-2.86101886e-08	-2.287592e-07	0	0;
	22	1	0	0	0	0	1	1.02642426	-3.23006502	115	4	1.1	0.9	-8.99489128e-08	-6.36581321e-07	0	0;
	23	1	0.885437226	0.251187865	0	0	1	1.02641106	-3.23153239	115	4	1.1	0.9	-8.93086144e-08	-6.36755499e-07	0	0;
	24	1	1.50712719	0.427019371	0	0	1	1.02640141	-3.23241934	115	4	1.1	0.9	-8.8813936e-08	-6.3659499e-07	0	0;
	25	1	0	0	0	0	1	1.00171701	-2.84077813	115	6	1.1	0.9	-5.47538789e-08	-4.06501879e-07	0	0;
	26	1	0.796153846	0.23	0	0	1	1.00170511	-2.84209411	115	6	1.1	0.9	-5.41063571e-08	-4.06335617e-07	0	0;
	27	1	0	0	0	0	1	1.02723471	-3.2547942	115	4	1.1	0.9	-8.93691698e-08	-6.29696189e-07	0	0;
	28	1	1.46316932	0.420739675	0	0	1	1.02721011	-3.25780945	115	4	1.1	0.9	-8.82750957e-08	-6.29839889e-07	0	0;
	29	1	0	0	0	0	1	0.971212242	-0.625591932	115	2	1.1	0.9	1.12982905e-08	-1.91414152e-08	0	0;
	30	1	36.286113	10.3411431	0	0	1	0.970618592	-0.690283058	115	2	1.1	0.9	4.71082394e-08	-8.50392465e-09	0	0;
	31	1	0	0	0	0	1	0.97642503	-3.12624383	115	7	1.1	0.9	-1.71323155e-08	-1.44994431e-07	0	0;
	32	1	0.357878419	0.105258359	0	0	1	0.976418398	-3.12703698	115	7	1.1	0.9	-1.6762452e-08	-1.44487515e-07	0	0;
	33	1	4.5190922	1.2911692	0	0	1	0.976352454	-3.1357176	115	7	1.1	0.9	-1.33017017e-08	-1.4352186e-07	0	0;
	34	1	0	0	0	0	1	1.01658375	-3.71735579	115	4	1.1	0.9	-8.95322797e-08	-5.92738827e-07	0	0;
	35	1	13.0366502	3.71758041	0	0	1	1.01637551	-3.74273057	115	4	1.1	0.9	-7.89196093e-08	-5.89955377e-07	0	0;
	36	1	0	0	0	0	1	0.98446565	-3.13473512	115	7	1.1	0.9	-1.95880614e-08	-1.62640962e-07	0	0;
	37	1	2.50514894	0.715756839	0	0	1	0.984427403	-3.1394305	115	7	1.1	0.9	-1.74621772e-08	-1.61816502e-07	0	0;
	38	1	20.9183445	5.96464032	0	0	1	0.984110182	-3.17580639	115	7	1.1	0.9	-1.24642535e-09	-1.57171887e-07	0	0;
	39	1	4.65325521	1.32501599	0	0	1	1.00083629	-4.26375975	115	4	1.1	0.9	-6.71939054e-08	-4.03946204e-07	0	0;
	40	1	1.28105811	0.364222405	0	0	1	1.00081853	-4.26592835	115	4	1.1	0.9	-6.61467696e-08	-4.03658687e-07	0	0;
	41	1	23.3708491	6.66258166	0	0	1	1.02130566	-4.61499585	115	5	1.1	0.9	-7.92191374e-08	-4.50918207e-07	0	0;
	42	1	6.66903783	1.90274808	0	0	1	1.00426794	-4.07351118	115	4	1.1	0.9	-6.8912728e-08	-4.1106479e-07	0	0;
	43	1	1.28343165	0.362308456	0	0	1	0.972075934	-2.34668824	115	2	1.1	0.9	-6.71408774e-09	-9.16049359e-08	0	0;
	44	1	2.6060741	0.741004203	0	0	1	0.998392195	-3.50791951	115	4	1.1	0.9	-5.19488574e-08	-3.37008374e-07	0	0;
	45	1	0	0	0	0	1	0.990613934	-0.868979802	230	7	1.1	0.9	-2.58359369e-08	-2.52237559e-07	0	0;
	46	1	4.44891996	1.27011753	0	0	1	0.992068179	-1.39477136	115	7	1.1	0.9	-2.63298348e-08	-2.62542975e-07	0	0;
	47	1	0.967073282	0.276306652	0	0	1	1.02255681	-3.06379672	115	4	1.1	0.9	-8.41015237e-08	-6.17772705e-07	0	0;
	48	1	1.07333333	0.306666667	0	0	1	0.993204137	-2.74451685	115	6	1.1	0.9	-4.33672541e-08	-3.29065532e-07	0	0;
	49	2	0	0	0	0	1	0.996989027	-2.33597981	13.8	6	1.1	0.9	-5.19794693e-08	-3.2650473e-07	0	0;
	50	2	0	0	0	0	1	0.996100394	-2.4342875	13.8	6	1.1	0.9	-5.33099212e-08	-3.27234693e-07	0	0;
	51	2	0	0	0	0	1	0.997493591	-2.2727032	13.8	6	1.1	0.9	-5.70243559e-08	-3.29119052e-07	0	0;
	52	2	0	0	0	0	1	0.995940683	-2.45340529	13.8	6	1.1	0.9	-5.9038239e-08	-3.30068669e-07	0	0;
	53	2	0	0	0	0	1	0.999564356	-1.85194736	13.8	6	1.1	0.9	-5.1402272e-08	-3.31064158e-07	0	0;
	54	1	1.67039931	0.477256944	0	0	1	1.02099188	-3.2366431	115	4	1.1	0.9	-8.56342686e-08	-6.11247299e-07	0	0;
	55	1	0	0	0	0	1	0.987673615	-0.898861568	230	7	1.1	0.9	-2.23451581e-08	-2.26279832e-07	0	0;
	56	1	0.919256332	0.259637285	0	0	1	0.987524804	-1.11253346	115	7	1.1	0.9	-2.20280313e-08	-2.15945212e-07	0	0;
	57	1	1.77087445	0.502375731	0	0	1	1.00815919	-4.24173154	115	4	1.1	0.9	-8.09552543e-08	-4.94492994e-07	0	0;
	58	1	2.96828571	0.849084093	0	0	1	0.992394429	-3.28470604	115	7	1.1	0.9	-2.60419346e-08	-1.95575662e-07	0	0;
	59	1	2.90460847	0.829010874	0	0	1	0.978626681	-2.42812195	115	2	1.1	0.9	-9.31977886e-10	-7.82327645e-08	0	0;
	60	1	2.33351209	0.6632087	0	0	1	0.982394116	-0.492538727	115	2	1.1	0.9	-2.93735077e-09	-1.07640984e-07	0	0;
	61	1	14.4203951	4.11209321	0	0	1	0.988384743	-1.45944203	115	7	1.1	0.9	-2.41320348e-08	-2.37146216e-07	0	0;
	62	1	13.4448305	3.83061495	0	0	1	1.00501701	-4.55848187	115	4	1.1	0.9	-7.94521097e-08	-4.56647401e-07	0	0;
	63	1	5.01119792	1.42549114	0	0	1	1.02520515	-3.5904181	115	4	1.1	0.9	-8.71828508e-08	-5.80895397e-07	0	0;
	64	1	0	0	0	0	1	0.994106261	-2.16256806	115	6	1.1	0.9	-4.54996712e-08	-3.77488162e-07	0	0;
	65	2	0	0	0	0	1	0.976659882	-0.236124035	13.8	6	1.1	0.9	-2.7443954e-08	-3.76928653e-07	0	0;
	66	1	0	0	0	0	1	1.02401298	-2.8577818	115	4	1.1	0.9	-8.13216828e-08	-6.19599185e-07	0	0;
	67	2	0	0	0	0	1	1.0250524	-2.75244444	13.8	4	1.1	0.9	-9.43888823e-08	-6.39597617e-07	0	0;
	68	2	0	0	0	0	1	1.02234494	-1.63941937	13.8	4	1.1	0.9	-6.85051139e-08	-6.47011827e-07	0	0;
	69	2	0	0	0	0	1	1.02368198	-2.42097244	13.8	4	1.1	0.9	-8.6678812e-08	-6.29027672e-07	0	0;
	70	2	0	0	0	0	1	1.02298288	-1.94074908	13.8	4	1.1	0.9	-7.62704981e-08	-6.40294102e-07	0	0;
	71	2	0	0	0	0	1	1.0237156	-2.48292763	13.8	4	1.1	0.9	-8.90495439e-08	-6.27429521e-07	0	0;
	72	2	0	0	0	0	1	1.02376909	-2.51476036	13.8	4	1.1	0.9	-8.97472646e-08	-6.26668064e-07	0	0;
	73	2	0	0	0	0	1	1.02345966	-2.18420019	13.8	4	1.1	0.9	-8.42887377e-08	-6.3446981e-07	0	0;
	74	1	11.0635897	3.15512821	0	0	1	0.990357285	-3.19161462	115	6	1.1	0.9	-4.3555737e-08	-3.08964501e-07	0	0;
	75	1	2.21069567	0.632504593	0	0	1	0.978347772	0.152975516	115	2	1.1	0.9	1.11949889e-08	1.75686656e-08	0	0;
	76	2	0	0	0	0	1	0.985302957	0.693648768	13.8	2	1.1	0.9	-4.26373897e-09	5.59152474e-08	0	0;
	77	2	0	0	0	0	1	0.98945541	1.06438982	13.8	2	1.1	0.9	-9.85947625e-08	4.28709243e-08	0	0;
	78	1	0	0	0	0	1	0.978347772	0.152975516	13.8	2	1.1	0.9	1.20325062e-08	3.53508119e-08	0	0;
	79	1	0	0	0	0	1	0.978347772	0.152975516	13.8	2	1.1	0.9	1.22418855e-08	4.47971911e-08	0	0;
	80	1	0.902161104	0.256018692	0	0	1	1.01934491	-4.22163487	115	5	1.1	0.9	-7.17241382e-08	-4.15851986e-07	0	0;
	81	1	0	0	0	0	1	0.996359517	-1.9293766	230	6	1.1	0.9	-3.57905563e-08	-2.73269748e-07	0	0;
	82	1	4.48205128	1.27974359	0	0	1	0.994403835	-2.35616224	115	6	1.1	0.9	-3.55863989e-08	-2.55444312e-07	0	0;
	83	1	2.20340831	0.624532928	0	0	1	0.983551967	-2.10264443	115	7	1.1	0.9	-1.49101463e-08	-1.45664492e-07	0	0;
	84	1	2.30280798	0.657067878	0	0	1	0.973431575	-2.50654868	115	2	1.1	0.9	-1.32540444e-08	-1.21298007e-07	0	0;
	85	1	3.03309348	0.866598136	0	0	1	0.997107816	-3.95121146	115	4	1.1	0.9	-5.51815352e-08	-3.45548356e-07	0	0;
	86	1	5.06617757	1.443093	0	0	1	0.969312789	-1.16229404	115	2	1.1	0.9	1.55000063e-08	-3.30669501e-09	0	0;
	87	1	0	0	0	0	1	1.01174461	-3.04096213	230	3	1.1	0.9	-7.17431655e-08	-4.79668697e-07	0	0;
	88	1	30.0295803	8.55727399	0	0	1	1.01232149	-3.80098805	115	3	1.1	0.9	-8.08224531e-08	-4.80409145e-07	0	0;
	89	1	44.1032523	12.567848	0	0	1	0.999882772	-3.60751593	115	7	1.1	0.9	-4.44292183e-08	-2.93134594e-07	0	0;
	90	2	0	0	0	0	1	1.01212112	-2.38621902	13.8	7	1.1	0.9	-1.42464884e-07	-4.61274305e-07	0	0;
	91	2	0	0	0	0	1	1.00437182	-3.18830622	13.8	7	1.1	0.9	-5.27386246e-08	-3.06721881e-07	0	0;
	92	1	0	0	0	0	1	0.999882772	-3.60751593	13.8	7	1.1	0.9	-4.44195477e-08	-2.92955407e-07	0	0;
	93	1	1.92158717	0.546333607	0	0	1	1.02708598	-3.35638255	115	4	1.1	0.9	-8.54477937e-08	-5.90717027e-07	0	0;
	94	2	0	0	0	0	1	1.0280599	-2.53524685	13.8	4	1.1	0.9	-8.11539174e-08	-6.25780105e-07	0	0;
	95	1	2.10516717	0.596464032	0	30	1	1.00543647	-3.57399187	115	7	1.1	0.9	-3.66861232e-08	-2.50768549e-07	0	0;
	96	1	2.07709828	0.589446809	0	0	1	1.00269267	-2.63465059	115	7	1.1	0.9	-4.61267334e-08	-3.33395268e-07	0	0;
	97	1	4.50122201	1.28343165	0	0	1	0.986264783	-1.65598617	115	2	1.1	0.9	-1.53525088e-08	-1.7369092e-07	0	0;
	98	1	0	0	0	0	1	0.975448932	0.429579073	230	2	1.1	0.9	5.00548994e-09	-2.31763311e-08	0	0;
	99	1	7.47337951	2.13086499	0	0	1	0.973299222	-0.216608622	115	2	1.1	0.9	9.35551489e-09	-1.3352288e-08	0	0;
	100	1	22.7917592	6.49799822	0	80	1	1.02968592	-4.50773884	115	5	1.1	0.9	-7.84084358e-08	-4.4739003e-07	0	0;
	101	1	0.319322707	0.0921123194	0	0	1	0.970020747	-1.1228395	115	2	1.1	0.9	1.44340552e-08	-7.36882046e-09	0	0;
	102	1	0	0	0	0	1	0.986567838	-0.676095648	230	7	1.1	0.9	-2.18961224e-08	-2.2310117e-07	0	0;
	103	1	0	0	0	0	1	0.987447347	-1.14763477	115	7	1.1	0.9	-2.16824499e-08	-2.15072004e-07	0	0;
	104	2	0	0	0	0	1	0.980601101	0.748789873	13.8	7	1.1	0.9	-2.51549676e-08	-2.14703754e-07	0	0;
	105	2	0	0	0	0	1	0.974181597	1.44075129	13.8	7	1.1	0.9	-1.33950475e-08	-2.19339826e-07	0	0;
	106	1	1.44554813	0.414016211	0	0	1	0.98565972	-1.31042543	115	7	1.1	0.9	-1.68183308e-08	-1.82431857e-07	0	0;
	107	1	36.8825289	10.5118014	0	0	1	0.971226712	-3.16677801	115	7	1.1	0.9	-1.90603567e-08	-1.56909316e-07	0	0;
	108	1	5.78465366	1.64574011	0	0	1	0.977195954	-0.224919268	115	2	1.1	0.9	1.32711077e-08	1.67237145e-08	0	0;
	109	1	3.24032346	0.923115406	0	0	1	0.986319115	-2.34256198	115	4	1.1	0.9	-2.04477558e-08	-1.78299731e-07	0	0;
	110	1	6.66893192	1.89751378	0	0	1	0.970066577	-1.10165286	115	2	1.1	0.9	1.44959487e-08	-6.41488888e-09	0	0;
	111	1	5.37639252	1.53001647	0	0	1	1.01791031	-4.68039641	115	5	1.1	0.9	-7.93907609e-08	-4.48241312e-07	0	0;
	112	1	0	0	0	0	1	0.982578857	-0.857908851	230	7	1.1	0.9	-1.83828372e-08	-1.96420193e-07	0	0;
	113	1	0	0	0	0	1	0.974736767	-2.58409561	115	7	1.1	0.9	-1.999011e-08	-1.53096654e-07	0	0;
	114	2	0	0	0	0	1	0.98324864	-0.680565886	13.8	7	1.1	0.9	-2.75138683e-08	-1.65384851e-07	0	0;
	115	2	0	0	0	0	1	0.974528052	1.03218875	13.8	7	1.1	0.9	-1.68726628e-08	-1.89606558e-07	0	0;
	116	1	0	0	0	0	1	0.974467404	0.34841252	230	2	1.1	0.9	2.60923562e-09	-4.06020028e-08	0	0;
	117	1	20.927919	5.96273747	0	0	1	0.972359951	-0.908898767	115	2	1.1	0.9	7.04837454e-09	-3.24478587e-08	0	0;
	118	1	2.41948359	0.687771985	0	0	1	0.974288208	-0.500265171	115	2	1.1	0.9	1.01199834e-08	-1.65957803e-08	0	0;
	119	1	10.7771414	3.07041065	0	0	1	0.974923485	-2.10767055	115	2	1.1	0.9	4.83047516e-09	-4.91058711e-08	0	0;
	120	1	1.13034539	0.320264529	0	0	1	0.994276184	-3.59923372	115	4	1.1	0.9	-4.48476285e-08	-2.96756699e-07	0	0;
	121	1	0	0	0	0	1	1.00087283	-1.22575688	230	7	1.1	0.9	-3.4136788e-08	-3.35065139e-07	0	0;
	122	1	10.8345937	3.08757852	0	0	1	0.998070473	-1.85590822	115	7	1.1	0.9	-3.68541805e-08	-3.10089064e-07	0	0;
	123	1	0	0	0	0	1	0.978394538	1.1298717	230	2	1.1	0.9	2.28707379e-09	-3.70199777e-08	0	0;
	124	1	0	0	0	0	1	0.97502263	-0.0948743365	115	2	1.1	0.9	7.06808323e-09	-2.14720989e-08	0	0;
	125	2	0	0	0	0	1	0.991070499	3.51187969	13.8	2	1.1	0.9	-6.56587237e-09	-3.54558555e-08	0	0;
	126	2	0	0	0	0	1	0.986046507	2.65079619	13.8	2	1.1	0.9	-7.7585724e-09	-3.57540201e-08	0	0;
	127	2	0	0	0	0	1	0.982137916	1.86088688	13.8	2	1.1	0.9	-8.75152309e-09	-3.74623222e-08	0	0;
	128	1	0	0	0	0	1	0.983155749	-0.868704091	230	7	1.1	0.9	-1.90716047e-08	-1.96127965e-07	0	0;
	129	1	54.2010375	15.4449098	0	0	1	0.973478132	-2.78805377	115	7	1.1	0.9	-2.13439581e-08	-1.72337362e-07	0	0;
	130	1	3.08757852	0.877152989	0	0	1	0.983979732	-1.4122728	115	7	1.1	0.9	-1.25864104e-08	-1.56280716e-07	0	0;
	131	1	18.5759844	5.29338795	0	0	1	0.970389075	-1.00736776	115	2	1.1	0.9	1.40514681e-08	-7.74009736e-09	0	0;
	132	1	16.5556542	4.71615075	0	0	1	0.969734708	-2.04717314	115	2	1.1	0.9	1.56862845e-09	-5.77123091e-08	0	0;
	133	1	0	0	0	0	1	0.977916221	1.33655373	230	2	1.1	0.9	-3.97420158e-10	-5.0103754e-08	0	0;
	134	1	0	0	0	0	1	0.979330473	0.521595801	115	2	1.1	0.9	2.83377395e-09	-5.90359471e-08	0	0;
	135	2	0	0	0	0	1	0.971795337	4.04756613	13.8	2	1.1	0.9	6.38940943e-10	-4.5895214e-08	0	0;
	136	2	0	0	0	0	1	0.973015136	3.55727963	13.8	2	1.1	0.9	-1.52335119e-10	-4.67359354e-08	0	0;
	137	1	0.72844481	0.207229989	0	0	1	1.01411497	-3.90809324	115	4	1.1	0.9	-8.77792487e-08	-5.65598695e-07	0	0;
	138	1	1.2325641	0.353846154	0	0	1	0.991101811	-2.59426576	115	6	1.1	0.9	-2.62762893e-08	-2.11461802e-07	0	0;
	139	1	4.20032176	1.19746015	0	0	1	0.981867072	-2.59204234	115	2	1.1	0.9	-7.0502299e-09	-1.09124981e-07	0	0;
	140	1	5.04161428	1.43695218	0	0	1	0.974311449	-0.21697653	115	2	1.1	0.9	7.95528781e-09	-3.29370594e-08	0	0;
	141	1	0.871996623	0.251773673	0	0	1	0.970064083	-1.09460243	115	2	1.1	0.9	1.50030841e-08	-5.5369846e-09	0	0;
	142	1	22.8807001	6.52155221	0	0	1	0.96896035	-1.09011565	115	2	1.1	0.9	1.48173783e-08	-3.49057009e-09	0	0;
	143	1	16.3242394	4.65100623	0	0	1	1.00649772	-3.84283728	115	5	1.1	0.9	-6.25415091e-08	-3.7204293e-07	0	0;
	144	1	5.55744327	1.58433189	0	0	1	0.977926527	-1.45179457	115	2	1.1	0.9	-5.60050763e-10	-8.09105051e-08	0	0;
	145	1	10.6752906	3.04312731	0	0	1	1.00972959	-4.24267109	115	3	1.1	0.9	-8.68295931e-08	-4.86549788e-07	0	0;
	146	1	0	0	0	0	1	0.983055851	-1.82221485	115	7	1.1	0.9	-1.55881791e-08	-1.45028827e-07	0	0;
	147	2	0	0	0	0	1	0.978429981	0.304621564	13.8	7	1.1	0.9	-2.36586913e-08	-1.34022971e-07	0	0;
	148	1	19.6629098	5.60656984	0	0	1	0.966902391	-1.55533666	115	2	1.1	0.9	1.8783111e-08	2.36624632e-09	0	0;
	149	1	0	0	0	0	1	1.0119914	-2.78069659	230	3	1.1	0.9	-6.95967477e-08	-4.78624154e-07	0	0;
	150	1	0	0	0	0	1	1.01385099	-3.49515301	115	3	1.1	0.9	-7.82987077e-08	-4.78876482e-07	0	0;
	151	2	0	0	0	0	1	1.01614493	-2.22395913	13.8	3	1.1	0.9	-9.56003066e-08	-5.31034382e-07	0	0;
	152	2	0	0	0	0	1	1.00430691	-0.921985605	13.8	3	1.1	0.9	-5.92184222e-08	-4.84375751e-07	0	0;
	153	2	0	0	0	0	1	1.00223148	-0.346677763	13.8	3	1.1	0.9	-4.95723731e-08	-4.86499671e-07	0	0;
	154	2	0	0	0	0	1	1.00669958	-1.43153093	13.8	3	1.1	0.9	-6.78444006e-08	-4.82263578e-07	0	0;
	155	2	0	0	0	0	1	1.00688703	-1.47224824	13.8	3	1.1	0.9	-6.85325681e-08	-4.82067284e-07	0	0;
	156	1	0	0	0	0	1	0.978175513	1.14855234	230	2	1.1	0.9	1.97042468e-09	-3.87579368e-08	0	0;
	157	1	9.06385223	2.58528576	0	0	1	0.978014198	0.648464847	115	2	1.1	0.9	3.7678792e-09	-1.62699138e-08	0	0;
	158	1	5.63288788	1.60760234	0	0	1	1.0250557	-3.08243881	115	4	1.1	0.9	-8.37779749e-08	-6.13469463e-07	0	0;
	159	1	0.872877833	0.251187865	0	0	1	1.00482168	-4.35561313	115	4	1.1	0.9	-7.57836816e-08	-4.5197905e-07	0	0;
	160	1	0	0	0	0	1	1.00776043	-4.34888812	115	4	1.1	0.9	-7.81321863e-08	-4.58352233e-07	0	0;
	161	1	0	0	0	0	1	1.00776043	-4.34888812	13.8	4	1.1	0.9	-7.8177647e-08	-4.60978096e-07	0	0;
	162	1	0.890419087	0.251773673	0	0	1	0.976452311	-1.30215699	115	2	1.1	0.9	2.05693247e-09	-6.18844892e-08	0	0;
	163	1	27.9182287	7.95486649	0	0	1	1.01849025	-4.5770601	115	5	1.1	0.9	-7.79032699e-08	-4.46758194e-07	0	0;
	164	1	0	0	0	0	1	1.01849025	-4.5770601	13.8	5	1.1	0.9	-7.85545207e-08	-4.55725886e-07	0	0;
	165	1	0	0	0	0	1	1.01849025	-4.5770601	13.8	5	1.1	0.9	-7.84904828e-08	-4.70695607e-07	0	0;
	166	1	0	0	0	0	1	1.01849025	-4.5770601	13.8	5	1.1	0.9	-7.92021212e-08	-4.77077024e-07	0	0;
	167	2	0	0	0	0	1	1.02071696	-4.27751022	13.8	5	1.1	0.9	-8.74869494e-08	-4.67446192e-07	0	0;
	168	1	0	0	0	0	1	1.01849025	-4.5770601	13.8	5	1.1	0.9	-7.93316255e-08	-4.85719209e-07	0	0;
	169	1	0	0	0	0	1	1.01849025	-4.5770601	13.8	5	1.1	0.9	-7.92021212e-08	-4.78215106e-07	0	0;
	170	2	0	0	0	0	1	1.02249923	-4.00425284	13.8	5	1.1	0.9	-8.88742086e-08	-4.86711119e-07	0	0;
	171	1	4.6825641	1.33282051	0	0	1	0.990849698	-3.06454271	115	6	1.1	0.9	-3.79713137e-08	-2.67273477e-07	0	0;
	172	1	3.27947753	0.932639519	0	0	1	1.01524632	-4.08380011	115	5	1.1	0.9	-7.58313987e-08	-4.57525045e-07	0	0;
	173	1	5.30934001	1.51172942	0	0	1	1.01824247	-4.55855545	115	5	1.1	0.9	-7.84716629e-08	-4.38715766e-07	0	0;
	174	1	1.68850423	0.481558968	0	0	1	1.01983206	-4.03744711	115	5	1.1	0.9	-7.03159254e-08	-4.16759136e-07	0	0;
	175	1	4.45594437	1.26790209	0	0	1	1.0178196	-4.68709539	115	5	1.1	0.9	-8.00068904e-08	-4.45878761e-07	0	0;
	176	1	11.56997	3.29875	0	0	1	1.01079088	-4.04047938	115	3	1.1	0.9	-8.28334484e-08	-4.83205415e-07	0	0;
	177	1	7.9224458	2.2595461	0	0	1	0.982215878	-2.86415244	115	7	1.1	0.9	-1.88332188e-08	-1.56680283e-07	0	0;
	178	1	0	0	0	0	1	1.00660553	-2.66473783	230	5	1.1	0.9	-5.45640342e-08	-3.47374079e-07	0	0;
	179	1	14.3919079	4.10239475	0	0	1	1.0173223	-3.91636379	115	5	1.1	0.9	-6.61062993e-08	-4.11620267e-07	0	0;
	180	1	4.71805874	1.34714597	0	0	1	1.01755119	-4.19369788	115	5	1.1	0.9	-7.75165388e-08	-4.62518921e-07	0	0;
	181	1	30.1299845	8.5843453	0	0	1	1.00908513	-4.23213558	115	4	1.1	0.9	-7.76890829e-08	-4.57570097e-07	0	0;
	182	2	0	0	0	0	1	1.01148595	-3.35869774	13.8	4	1.1	0.9	-7.61904853e-08	-4.71904384e-07	0	0;
	183	2	0	0	0	0	1	1.00950271	-3.71952474	13.8	4	1.1	0.9	-8.57739703e-08	-4.62234138e-07	0	0;
	184	1	6.51628527	1.85918336	0	0	1	1.02722627	-4.29029841	115	5	1.1	0.9	-8.62658607e-08	-5.1202069e-07	0	0;
	185	1	6.56706873	1.86848017	0	0	1	1.01098393	-4.05579528	115	3	1.1	0.9	-8.55223754e-08	-4.85770312e-07	0	0;
	186	1	1.28957247	0.368449278	0	0	1	0.983567319	-1.59709377	115	2	1.1	0.9	-1.27374208e-08	-1.35864145e-07	0	0;
	187	1	0	0	0	0	1	0.997814564	-0.777008124	230	7	1.1	0.9	-3.22550067e-08	-3.1670144e-07	0	0;
	188	1	0	0	0	0	1	1.00363615	-2.4490613	115	7	1.1	0.9	-4.47382977e-08	-3.26768923e-07	0	0;
	189	3	0	0	0	0	1	0.995080097	3.39755609e-23	13.8	7	1.1	0.9	-2.64802365e-08	-3.17999012e-07	0	0;
	190	1	9.90179487	2.81897436	0	0	1	0.989551725	-3.31150674	115	6	1.1	0.9	-4.17641406e-08	-2.88148902e-07	0	0;
	191	1	4.40717891	1.25571073	0	0	1	1.02369385	-3.92440948	115	5	1.1	0.9	-8.69524623e-08	-5.44446066e-07	0	0;
	192	1	37.0088389	10.5468875	0	0	1	0.971641295	-3.21509169	115	7	1.1	0.9	-1.79869225e-08	-1.5162672e-07	0	0;
	193	1	13.503666	3.85029495	0	0	1	0.970749609	-0.97751513	115	2	1.1	0.9	1.3331921e-08	-8.20006553e-09	0	0;
	194	1	22.8660586	6.51837869	0	50	1	1.01554493	-3.95090845	115	3	1.1	0.9	-7.9644517e-08	-4.76566516e-07	0	0;
	195	1	0	0	0	0	1	0.993095943	-2.54788636	115	6	1.1	0.9	-3.26689959e-08	-2.44742003e-07	0	0;
	196	1	0	0	0	0	1	0.993095943	-2.54788636	13.8	6	1.1	0.9	-3.25849526e-08	-2.42971549e-07	0	0;
	197	1	0	0	0	0	1	0.993095943	-2.54788636	13.8	6	1.1	0.9	-3.25849526e-08	-2.39095353e-07	0	0;
	198	1	3.29762103	0.939545658	0	0	1	0.975372644	-0.516492523	115	2	1.1	0.9	1.19512506e-08	-1.91968368e-09	0	0;
	199	1	2.51230769	0.713589744	0	0	1	1.01045579	-3.61646393	115	6	1.1	0.9	-6.71196658e-08	-4.38713581e-07	0	0;
	200	1	5.86523666	1.67039931	0	0	1	0.991185462	-2.66767479	115	4	1.1	0.9	-3.16882176e-08	-2.47884274e-07	0	0;
];

%% generator data
%	bus	Pg	Qg	Qmax	Qmin	Vg	mBase	status	Pmax	Pmin	Pc1	Pc2	Qc1min	Qc1max	Qc2min	Qc2max	ramp_agc	ramp_10	ramp_30	ramp_q	apf	pgs
mpc.gen = [
	49	1.35999911	0.644605931	2.11	-0.55	0.996989027	5.44	1	4.53	1.36	0	0	0	0	0	0	3	30	90	0	0.00151126442	1.36;
	50	1.35999911	0.64430947	2.11	-0.55	0.996100394	5.44	1	4.53	1.36	0	0	0	0	0	0	3	30	90	0	0.00151126442	1.36;
	51	1.35999911	0.643544329	2.11	-0.55	0.997493591	5.44	1	4.53	1.36	0	0	0	0	0	0	3	30	90	0	0.00151126442	1.36;
	52	1.35999911	0.64315886	2.11	-0.55	0.995940683	5.44	1	4.53	1.36	0	0	0	0	0	0	3	30	90	0	0.00151126442	1.36;
	53	2.71999911	1.02350336	4.23	-1.11	0.999564356	10.88	1	9.07	2.72	0	0	0	0	0	0	3	30	90	0	0.00302586497	2.72;
	65	31.9241681	-16.6378457	32.04	-21.66	0.976659882	180.48	1	86.5	0	0	0	0	0	0	0	45	450	1350	0	0.0288574774	86.5;
	67	1.40999911	0.533084823	2.19	-0.57	1.0250524	5.64	1	4.7	1.41	0	0	0	0	0	0	3	30	90	0	0.00156797854	1.41;
	68	8.37999911	-0.772087319	13.01	-3.41	1.02234494	33.5	1	27.92	8.38	0	0	0	0	0	0	3	30	90	0	0.00931445976	8.38;
	69	8.37999911	-0.713682323	13.01	-3.41	1.02368198	33.5	1	27.92	8.38	0	0	0	0	0	0	3	30	90	0	0.00931445976	8.38;
	70	8.37999911	-0.750556588	13.01	-3.41	1.02298288	33.5	1	27.92	8.38	0	0	0	0	0	0	3	30	90	0	0.00931445976	8.38;
	71	8.37999911	-0.708372401	13.01	-3.41	1.0237156	33.5	1	27.92	8.38	0	0	0	0	0	0	3	30	90	0	0.00931445976	8.38;
	72	8.37999911	-0.705835397	13.01	-3.41	1.02376909	33.5	1	27.92	8.38	0	0	0	0	0	0	3	30	90	0	0.00931445976	8.38;
	73	8.37999911	-0.73161535	13.01	-3.41	1.02345966	33.5	1	27.92	8.38	0	0	0	0	0	0	3	30	90	0	0.00931445976	8.38;
	76	1.19999909	0.820360443	2.04	-0.44	0.985302957	4.8	1	4	1.2	0	0	0	0	0	0	35	350	1050	0	0.00133444982	1.2;
	77	0.719999091	0.48063614	1.22	-0.27	0.98945541	2.88	1	2.4	0.72	0	0	0	0	0	0	35	350	1050	0	0.000800669894	0.72;
	78	0	0	9.16	-2	0.978347772	21.6	0	18	5.4	0	0	0	0	0	0	35	350	1050	0	0	11.7;
	79	0	0	9.16	-2	0.978347772	21.6	0	18	5.4	0	0	0	0	0	0	35	350	1050	0	0	11.7;
	90	0.959999091	0.528072009	1.63	-0.36	1.01212112	3.84	1	3.2	0.96	0	0	0	0	0	0	35	350	1050	0	0.00106755986	0.96;
	91	1.49999909	0.827601858	2.55	-0.55	1.00437182	6	1	5	1.5	0	0	0	0	0	0	35	350	1050	0	0.00166806228	1.5;
	92	0	0	3.21	-0.7	0.999882772	7.56	0	6.3	1.89	0	0	0	0	0	0	35	350	1050	0	0	4.095;
	94	5.39999911	0.189936527	8.39	-2.2	1.0280599	21.6	1	18	5.4	0	0	0	0	0	0	3	30	90	0	0.0060050242	5.4;
	104	27.2480712	-6.97905762	21.09	-14.26	0.980601101	118.8	1	67.6	0	0	0	0	0	0	0	45	450	1350	0	0.022552202	67.6;
	105	59.4167711	-20.1735394	42.17	-28.51	0.974181597	237.6	1	154.8	0	0	0	0	0	0	0	45	450	1350	0	0.0516432082	154.8;
	114	0.696806435	0.0564745783	0.36	-0.24	0.98324864	2.04	1	1.4	0	0	0	0	0	0	0	45	450	1350	0	0.000467057438	1.4;
	115	50.0548535	-12.6897198	31.95	-21.6	0.974528052	180	1	133.5	0	0	0	0	0	0	0	45	450	1350	0	0.0445372628	133.5;
	125	39.0199991	11.1441307	60.6	-15.87	0.991070499	156.06	1	130.05	39.02	0	0	0	0	0	0	3	30	90	0	0.0433862999	39.02;
	126	39.0199991	11.0648838	60.6	-15.87	0.986046507	156.06	1	130.05	39.02	0	0	0	0	0	0	3	30	90	0	0.0433862999	39.02;
	127	39.0199991	10.6166503	60.6	-15.87	0.982137916	156.06	1	130.05	39.02	0	0	0	0	0	0	3	30	90	0	0.0433862999	39.02;
	135	133.919999	-16.294135	208.02	-54.46	0.971795337	535.68	1	446.4	133.92	0	0	0	0	0	0	3	30	90	0	0.1489246	133.92;
	136	133.919999	-16.8500445	208.02	-54.46	0.973015136	535.68	1	446.4	133.92	0	0	0	0	0	0	3	30	90	0	0.1489246	133.92;
	147	34.9471416	-4.6529505	21.41	-14.47	0.978429981	120.6	1	92.4	0	0	0	0	0	0	0	45	450	1350	0	0.0308257909	92.4;
	151	1.61999911	0.623780602	2.52	-0.66	1.01614493	6.48	1	5.4	1.62	0	0	0	0	0	0	3	30	90	0	0.00180150726	1.62;
	152	23.1699991	-5.4766978	35.99	-9.42	1.00430691	92.67	1	77.22	23.17	0	0	0	0	0	0	3	30	90	0	0.0257615538	23.17;
	153	23.1699991	-5.49214402	35.99	-9.42	1.00223148	92.67	1	77.22	23.17	0	0	0	0	0	0	3	30	90	0	0.0257615538	23.17;
	154	23.1699991	-5.46121727	35.99	-9.42	1.00669958	92.67	1	77.22	23.17	0	0	0	0	0	0	3	30	90	0	0.0257615538	23.17;
	155	23.1699991	-5.45977248	35.99	-9.42	1.00688703	92.67	1	77.22	23.17	0	0	0	0	0	0	3	30	90	0	0.0257615538	23.17;
	161	0	0	70.55	-15.38	1.00776043	166.32	0	138.6	41.58	0	0	0	0	0	0	35	350	1050	0	0	90.09;
	164	0	0	6.11	-1.33	1.01849025	14.4	0	12	3.6	0	0	0	0	0	0	35	350	1050	0	0	7.8;
	165	0	0	13.23	-2.89	1.01849025	31.2	0	26	7.8	0	0	0	0	0	0	35	350	1050	0	0	16.9;
	166	0	0	4.78	-1.04	1.01849025	11.28	0	9.4	2.82	0	0	0	0	0	0	35	350	1050	0	0	6.11;
	167	2.81999909	1.01355426	4.78	-1.04	1.02071696	11.28	1	9.4	2.82	0	0	0	0	0	0	35	350	1050	0	0.00313595708	2.82;
	168	0	0	4.78	-1.04	1.01849025	11.28	0	9.4	2.82	0	0	0	0	0	0	35	350	1050	0	0	6.11;
	169	0	0	4.78	-1.04	1.01849025	11.28	0	9.4	2.82	0	0	0	0	0	0	35	350	1050	0	0	6.11;
	170	2.81999909	0.984161627	4.78	-1.04	1.02249923	11.28	1	9.4	2.82	0	0	0	0	0	0	35	350	1050	0	0.00313595708	2.82;
	182	5.24999911	0.661646094	8.16	-2.14	1.01148595	21	1	17.5	5.25	0	0	0	0	0	0	3	30	90	0	0.00583821798	5.25;
	183	7.97999911	0.0814729228	12.4	-3.25	1.00950271	31.92	1	26.6	7.98	0	0	0	0	0	0	3	30	90	0	0.00887409132	7.98;
	189	170.749999	-40.20426	209.45	-46.67	0.995080097	682.98	1	569.15	170.75	0	0	0	0	0	0	20	200	600	0	0.189875529	384.37;
	196	0	0	34.36	-7.49	0.993095943	81	0	67.5	20.25	0	0	0	0	0	0	35	350	1050	0	0	43.875;
	197	0	0	34.36	-7.49	0.993095943	81	0	67.5	20.25	0	0	0	0	0	0	35	350	1050	0	0	43.875;
];

%% branch data
%	fbus	tbus	r	x	b	rateA	rateB	rateC	ratio	angle	status	angmin	angmax	Pf	Qf	Pt	Qt
mpc.branch = [
	1	2	0.000673	0.003339	0	100	0	0	1	0	1	0	0	4.5382	1.2904	-4.5381	-1.2896;
	1	119	0.018542	0.119758	0.02285	221.1	0	0	1	0	1	0	0	17.2864	-5.3165	-17.2243	3.5503;
	1	124	0.005615	0.036268	0.00692	221.1	0	0	1	0	1	0	0	-32.7379	-1.1404	32.8016	0.8951;
	1	193	0.004258	0.027501	0.00525	221.1	0	0	1	0	1	0	0	10.9133	5.1665	-10.9067	-5.6191;
	3	4	0.000573	0.003303	0	100	0	0	1	0	1	0	0	1.0676	0.3015	-1.0675	-0.3014;
	3	57	0.008505	0.058098	0.00988	221.1	0	0	1	0	1	0	0	6.5537	4.9464	-6.5476	-5.9130;
	3	137	0.005889	0.038035	0.00726	221.1	0	0	1	0	1	0	0	-7.6212	-5.2478	7.6259	4.5333;
	5	6	0.000694	0.003337	0	100	0	0	1	0	1	0	0	4.6886	1.3336	-4.6885	-1.3328;
	5	48	0.006246	0.043513	0.00711	221.1	0	0	1	0	1	0	0	7.4954	-1.2102	-7.4918	0.5339;
	5	64	0.007877	0.054875	0.00897	221.1	0	0	1	0	1	0	0	-12.1840	-0.1234	12.1959	-0.6797;
	7	8	0.000634	0.003189	0	100	0	0	1	0	1	0	0	14.5799	4.1652	-14.5783	-4.1573;
	7	86	0.003756	0.024259	0.00463	221.1	0	0	1	0	1	0	0	-9.3876	-1.4822	9.3912	1.0707;
	7	101	0.003597	0.023232	0.00443	221.1	0	0	1	0	1	0	0	-12.9744	-3.9818	12.9814	3.6108;
	7	148	0.008667	0.05598	0.01068	221.1	0	0	1	0	1	0	0	7.7822	1.2989	-7.7763	-2.2611;
	9	10	0.000585	0.003967	0	100	0	0	1	0	1	0	0	26.2136	7.4986	-26.2090	-7.4672;
	9	124	0.008069	0.055123	0.00938	221.1	0	0	1	0	1	0	0	-28.0218	-4.5507	28.0906	4.1330;
	9	131	0.004139	0.026732	0.0051	221.1	0	0	1	0	1	0	0	-0.2657	-0.7650	0.2657	0.2849;
	9	141	0.004446	0.03097	0.00506	221.1	0	0	1	0	1	0	0	4.4526	-0.3446	-4.4517	-0.1251;
	9	193	0.003695	0.025244	0.00429	221.1	0	0	1	0	1	0	0	-2.3788	-1.8383	2.3791	1.4364;
	11	12	0.000534	0.003533	0	100	0	0	1	0	1	0	0	0.1884	0.0565	-0.1884	-0.0565;
	11	13	0.000619	0.003606	0	100	0	0	1	0	1	0	0	1.5825	0.4522	-1.5825	-0.4521;
	11	15	0.010408	0.06722	0.01282	221.1	0	0	1	0	1	0	0	-3.3423	3.5134	3.3452	-4.8384;
	11	93	0.018394	0.128141	0.02095	221.1	0	0	1	0	1	0	0	2.9798	-3.3212	-2.9774	1.1328;
	11	158	0.008519	0.058199	0.0099	221.1	0	0	1	0	1	0	0	-1.4084	-0.7010	1.4085	-0.3379;
	14	15	0.000637	0.027526	0	300	0	0	1	0	1	0	0	31.4685	-27.6910	-31.4576	28.1603;
	14	121	0.007013	0.050098	0.09134	402.36	0	0	1	0	1	0	0	-39.9211	30.1714	40.1124	-38.0859;
	14	149	0.009133	0.065244	0.11895	402.36	0	0	1	0	1	0	0	8.4526	-2.4805	-8.4451	-9.6851;
	15	16	0.000553	0.0032	0	100	0	0	1	0	1	0	0	28.1124	8.0391	-28.1079	-8.0129;
	17	18	0.000503	0.003926	0	100	0	0	1	0	1	0	0	0.4459	0.1256	-0.4459	-0.1256;
	17	19	0.000514	0.003079	0	100	0	0	1	0	1	0	0	0.4835	0.1382	-0.4835	-0.1382;
	17	20	0.000623	0.003339	0	100	0	0	1	0	1	0	0	0.7096	0.2010	-0.7096	-0.2010;
	17	21	0.00062	0.00394	0	100	0	0	1	0	1	0	0	2.8950	0.8230	-2.8949	-0.8226;
	17	109	0.009789	0.068198	0.01115	221.1	0	0	1	0	1	0	0	-16.6722	7.1577	16.7059	-8.0115;
	17	120	0.010316	0.070473	0.01199	221.1	0	0	1	0	1	0	0	12.1382	-8.4454	-12.1162	7.4156;
	22	23	0.000616	0.003222	0	100	0	0	1	0	1	0	0	0.8854	0.2512	-0.8854	-0.2512;
	22	24	0.000687	0.003067	0	100	0	0	1	0	1	0	0	1.5071	0.4271	-1.5071	-0.4270;
	22	27	0.011379	0.073494	0.01402	221.1	0	0	1	0	1	0	0	0.4336	-1.9374	-0.4334	0.4603;
	22	158	0.012701	0.086769	0.01476	221.1	0	0	1	0	1	0	0	-2.8262	1.2591	2.8276	-2.8021;
	25	26	0.00061	0.003071	0	100	0	0	1	0	1	0	0	0.7962	0.2300	-0.7962	-0.2300;
	25	64	0.007643	0.053244	0.0087	221.1	0	0	1	0	1	0	0	-19.6587	16.8351	19.7109	-17.3382;
	25	199	0.009909	0.064003	0.01221	221.1	0	0	1	0	1	0	0	18.8626	-17.0651	-18.8007	16.2288;
	27	28	0.000587	0.003964	0	100	0	0	1	0	1	0	0	1.4632	0.4208	-1.4632	-0.4207;
	27	93	0.025172	0.175362	0.02867	221.1	0	0	1	0	1	0	0	1.0576	-1.5764	-1.0573	-1.4466;
	27	158	0.020429	0.131945	0.02517	221.1	0	0	1	0	1	0	0	-2.0874	0.6952	2.0890	-3.3350;
	29	30	0.000694	0.003131	0	100	0	0	1	0	1	0	0	36.2966	10.3885	-36.2861	-10.3411;
	29	124	0.005561	0.038742	0.00633	221.1	0	0	1	0	1	0	0	-23.5119	-6.3710	23.5467	6.0137;
	29	140	0.007895	0.055004	0.00899	221.1	0	0	1	0	1	0	0	-12.7847	-4.0175	12.7995	3.2696;
	31	32	0.000667	0.003884	0	100	0	0	1	0	1	0	0	0.3579	0.1053	-0.3579	-0.1053;
	31	33	0.000528	0.003639	0	100	0	0	1	0	1	0	0	4.5192	1.2920	-4.5191	-1.2912;
	31	177	0.008406	0.05856	0.00957	221.1	0	0	1	0	1	0	0	-8.6960	-8.8464	8.7088	8.0183;
	31	192	0.008088	0.05525	0.0094	221.1	0	0	1	0	1	0	0	3.8189	7.4491	-3.8123	-8.2964;
	34	35	0.000575	0.003674	0	100	0	0	1	0	1	0	0	13.0377	3.7241	-13.0367	-3.7176;
	34	54	0.006268	0.042819	0.00729	221.1	0	0	1	0	1	0	0	-21.3980	-7.6246	21.4289	7.0794;
	34	137	0.006911	0.044639	0.00852	221.1	0	0	1	0	1	0	0	8.3603	3.9005	-8.3544	-4.7405;
	36	37	0.000552	0.003328	0	100	0	0	1	0	1	0	0	2.5052	0.7160	-2.5051	-0.7158;
	36	38	0.00067	0.003511	0	100	0	0	1	0	1	0	0	20.9216	5.9818	-20.9183	-5.9646;
	36	58	0.010889	0.07439	0.01266	221.1	0	0	1	0	1	0	0	1.8624	-11.3744	-1.8490	10.2291;
	36	83	0.009615	0.066986	0.01095	221.1	0	0	1	0	1	0	0	-25.2892	4.6766	25.3554	-5.2761;
	39	40	0.000505	0.003103	0	100	0	0	1	0	1	0	0	1.2811	0.3643	-1.2811	-0.3642;
	39	85	0.008702	0.060625	0.00991	221.1	0	0	1	0	1	0	0	-7.9290	6.8215	7.9391	-7.7400;
	39	159	0.007332	0.05108	0.00835	221.1	0	0	1	0	1	0	0	1.9947	-8.5108	-1.9896	7.7065;
	41	100	0.004595	0.029676	0.00566	221.1	0	0	1	0	1	0	0	-10.8386	-27.4516	10.8763	27.0996;
	41	163	0.003165	0.021623	0.00368	221.1	0	0	1	0	1	0	0	-1.2125	13.2845	1.2181	-13.6293;
	41	180	0.009408	0.060766	0.01159	221.1	0	0	1	0	1	0	0	-11.3197	7.5045	11.3372	-8.5961;
	42	44	0.012256	0.085383	0.01396	221.1	0	0	1	0	1	0	0	-10.3778	7.7539	10.3996	-9.0019;
	42	181	0.008008	0.05579	0.00912	221.1	0	0	1	0	1	0	0	3.7088	-9.6566	-3.7009	8.7868;
	43	84	0.007509	0.051295	0.00873	221.1	0	0	1	0	1	0	0	4.6718	-3.6582	-4.6692	2.8497;
	43	132	0.011052	0.075503	0.01285	221.1	0	0	1	0	1	0	0	-5.9552	3.2959	5.9612	-4.4667;
	44	200	0.014813	0.101195	0.01722	221.1	0	0	1	0	1	0	0	-13.0056	8.2609	13.0431	-9.7089;
	45	46	0.000936	0.049195	0	160	0	0	1	0	1	0	0	18.2713	-3.1919	-18.2680	3.3643;
	45	55	0.002593	0.018527	0.03378	402.36	0	0	1	0	1	0	0	4.8595	13.3846	-4.8529	-16.6425;
	45	102	0.0029	0.020715	0.03777	402.36	0	0	1	0	1	0	0	-12.9169	19.3307	12.9351	-22.8921;
	45	187	0.003474	0.024821	0.04525	402.36	0	0	1	0	1	0	0	-10.2139	-29.5235	10.2439	25.2656;
	46	61	0.006971	0.048561	0.00794	221.1	0	0	1	0	1	0	0	3.2917	6.6630	-3.2874	-7.4117;
	46	122	0.010129	0.065419	0.01248	221.1	0	0	1	0	1	0	0	10.5274	-11.2975	-10.5042	10.2113;
	47	54	0.006678	0.045623	0.00776	221.1	0	0	1	0	1	0	0	7.2627	2.0491	-7.2590	-2.8337;
	47	66	0.007339	0.047401	0.00904	221.1	0	0	1	0	1	0	0	-8.2298	-2.3255	8.2348	1.4111;
	48	49	0.027149	0.532021	0	28.9	0	0	1	0	1	0	0	-1.3594	-0.6325	1.3600	0.6446;
	48	50	0.021719	0.404167	0	28.7	0	0	1	0	1	0	0	-1.3595	-0.6351	1.3600	0.6443;
	48	51	0.027149	0.612711	0	24.3	0	0	1	0	1	0	0	-1.3594	-0.6296	1.3600	0.6435;
	48	52	0.021719	0.379817	0	24.3	0	0	1	0	1	0	0	-1.3595	-0.6345	1.3600	0.6432;
	48	53	0.02121	0.576549	0	35.3	0	0	1	0	1	0	0	-2.7182	-0.9748	2.7200	1.0235;
	48	74	0.007959	0.054369	0.00925	221.1	0	0	1	0	1	0	0	14.5744	2.6659	-14.5565	-3.4533;
	54	66	0.007051	0.045544	0.00869	221.1	0	0	1	0	1	0	0	-15.8404	-4.7230	15.8586	3.9320;
	55	56	0.005152	0.124653	0	160	0	0	1	0	1	0	0	2.9181	0.0027	-2.9176	0.0081;
	55	81	0.005467	0.039054	0.0712	402.36	0	0	1	0	1	0	0	41.4872	-30.8394	-41.3488	24.8214;
	55	102	0.001246	0.008902	0.01623	402.36	0	0	1	0	1	0	0	-40.0444	17.1646	40.0690	-18.5703;
	55	112	0.004166	0.029763	0.05426	402.36	0	0	1	0	1	0	0	0.0353	14.2561	-0.0231	-19.4348;
	55	128	0.003415	0.024395	0.04448	402.36	0	0	1	0	1	0	0	0.4566	16.0585	-0.4449	-20.2946;
	56	103	0.004282	0.02983	0.00488	221.1	0	0	1	0	1	0	0	1.9984	-0.2678	-1.9982	-0.2069;
	57	159	0.00752	0.051369	0.00874	221.1	0	0	1	0	1	0	0	4.7767	5.4106	-4.7725	-6.2671;
	58	95	0.009836	0.063526	0.01212	221.1	0	0	1	0	1	0	0	4.6669	-21.6735	-4.6204	20.7647;
	58	177	0.014049	0.095972	0.01633	221.1	0	0	1	0	1	0	0	-5.7862	10.5953	5.8095	-12.0279;
	59	119	0.011209	0.072397	0.01381	221.1	0	0	1	0	1	0	0	-6.4381	5.3619	6.4472	-6.6207;
	59	139	0.009665	0.062426	0.01191	221.1	0	0	1	0	1	0	0	3.5335	-6.1909	-3.5290	5.0752;
	60	97	0.012274	0.079279	0.01512	221.1	0	0	1	0	1	0	0	23.5471	-8.9196	-23.4680	7.9652;
	60	134	0.009007	0.062749	0.01026	221.1	0	0	1	0	1	0	0	-25.8806	8.2564	25.9503	-8.7582;
	61	103	0.006539	0.045556	0.00745	221.1	0	0	1	0	1	0	0	-11.1330	3.2996	11.1422	-3.9627;
	62	159	0.008634	0.058979	0.01003	221.1	0	0	1	0	1	0	0	-5.8861	0.6987	5.8892	-1.6905;
	62	160	0.007628	0.053144	0.00869	221.1	0	0	1	0	1	0	0	-7.5587	-4.5293	7.5643	3.6880;
	63	66	0.011949	0.083244	0.01361	221.1	0	0	1	0	1	0	0	-15.5791	3.0924	15.6083	-4.3175;
	63	184	0.017963	0.116023	0.02214	221.1	0	0	1	0	1	0	0	10.5679	-4.5179	-10.5469	2.3219;
	64	65	0.00128	0.10157	0	195.5	0	0	1	0	1	0	0	-31.9068	18.0178	31.9242	-16.6378;
	66	67	0.020951	0.144786	0	30	0	0	1	0	1	0	0	-1.4095	-0.5300	1.4100	0.5331;
	66	68	0.00689	0.264997	0	73	0	0	1	0	1	0	0	-8.3753	0.9516	8.3800	-0.7721;
	66	69	0.00441	0.09499	0	70.5	0	0	1	0	1	0	0	-8.3770	0.7778	8.3800	-0.7137;
	66	70	0.00689	0.199449	0	70.5	0	0	1	0	1	0	0	-8.3753	0.8855	8.3800	-0.7506;
	66	71	0.003528	0.081544	0	68	0	0	1	0	1	0	0	-8.3776	0.7634	8.3800	-0.7084;
	66	72	0.003528	0.074599	0	68	0	0	1	0	1	0	0	-8.3776	0.7562	8.3800	-0.7058;
	66	73	0.00689	0.146423	0	65	0	0	1	0	1	0	0	-8.3753	0.8305	8.3800	-0.7316;
	66	158	0.004993	0.032251	0.00615	221.1	0	0	1	0	1	0	0	11.9661	-5.4608	-11.9580	4.8674;
	74	190	0.008894	0.06076	0.01034	221.1	0	0	1	0	1	0	0	3.4929	0.2982	-3.4918	-1.3036;
	75	76	0.038464	0.784328	0	24.3	0	0	1	0	1	0	0	-1.1992	-0.8033	1.2000	0.8204;
	75	77	0.08013	2.192105	0	7.4	0	0	1	0	1	0	0	-0.7194	-0.4639	0.7200	0.4806;
	75	78	0.008544	0.181406	0	65	0	0	1	0	1	0	0	0.0000	0.0000	0.0000	0.0000;
	75	79	0.01068	0.277774	0	62.1	0	0	1	0	1	0	0	0.0000	0.0000	0.0000	0.0000;
	75	108	0.010988	0.070969	0.01354	221.1	0	0	1	0	1	0	0	8.9214	-0.4121	-8.9123	-0.8233;
	75	157	0.013487	0.087112	0.01662	221.1	0	0	1	0	1	0	0	-9.2135	1.0468	9.2260	-2.5567;
	80	100	0.021463	0.149525	0.02444	221.1	0	0	1	0	1	0	0	2.4442	-8.6615	-2.4316	6.1834;
	80	143	0.020594	0.14347	0.02345	221.1	0	0	1	0	1	0	0	-3.3463	8.4055	3.3669	-10.6682;
	81	82	0.00097	0.042371	0	250	0	0	1	0	1	0	0	17.5154	4.2627	-17.5122	-4.1240;
	81	178	0.006598	0.047137	0.08594	402.36	0	0	1	0	1	0	0	23.8334	-29.0841	-23.7547	21.0266;
	82	195	0.003845	0.026265	0.00447	221.1	0	0	1	0	1	0	0	13.0302	2.8443	-13.0232	-3.2381;
	83	146	0.005382	0.036767	0.00626	221.1	0	0	1	0	1	0	0	-12.4064	2.8719	12.4155	-3.4149;
	83	186	0.00792	0.055174	0.00902	221.1	0	0	1	0	1	0	0	-15.1524	1.7797	15.1716	-2.5185;
	84	113	0.006652	0.04544	0.00773	221.1	0	0	1	0	1	0	0	2.3664	-3.5068	-2.3653	2.7807;
	85	120	0.007786	0.050291	0.00959	221.1	0	0	1	0	1	0	0	-10.9722	6.8734	10.9858	-7.7359;
	86	101	0.00512	0.033072	0.00631	221.1	0	0	1	0	1	0	0	-2.2255	-2.0262	2.2260	1.4357;
	86	142	0.003387	0.023141	0.00394	221.1	0	0	1	0	1	0	0	-4.7937	1.9960	4.7947	-2.3592;
	86	193	0.006606	0.042664	0.00814	221.1	0	0	1	0	1	0	0	-7.4381	-2.4836	7.4423	1.7448;
	87	88	0.000832	0.034189	0	350	0	0	1	0	1	0	0	39.6785	-2.4092	-39.6656	2.9369;
	87	149	0.001621	0.011579	0.02111	402.36	0	0	1	0	1	0	0	-39.6785	2.4092	39.7036	-4.3911;
	88	150	0.00557	0.035973	0.00686	221.1	0	0	1	0	1	0	0	-15.5174	-2.2124	15.5307	1.5940;
	88	176	0.003859	0.024922	0.00475	221.1	0	0	1	0	1	0	0	17.7055	3.2682	-17.6933	-3.6750;
	88	194	0.004258	0.029088	0.00495	221.1	0	0	1	0	1	0	0	7.4479	-12.5500	-7.4393	12.0998;
	89	90	0.0601	2.279922	0	8.6	0	0	1	0	1	0	0	-0.9593	-0.5014	0.9600	0.5281;
	89	91	0.024614	0.503424	0	32	0	0	1	0	1	0	0	-1.4993	-0.8130	1.5000	0.8276;
	89	92	0.019539	0.36204	0	35.3	0	0	1	0	1	0	0	0.0000	0.0000	0.0000	0.0000;
	89	95	0.008734	0.056409	0.01076	221.1	0	0	1	0	1	0	0	-2.5068	-9.9937	2.5152	8.9659;
	89	188	0.00805	0.051996	0.00992	221.1	0	0	1	0	1	0	0	-39.1378	-1.2598	39.2612	1.0613;
	93	94	0.01068	0.280602	0	62.1	0	0	1	0	1	0	0	-5.3970	-0.1124	5.4000	0.1899;
	93	191	0.022088	0.142662	0.02722	221.1	0	0	1	0	1	0	0	7.5102	-0.1201	-7.4980	-2.6632;
	96	122	0.01062	0.073986	0.01209	221.1	0	0	1	0	1	0	0	-17.1142	8.2380	17.1534	-9.1748;
	96	143	0.015858	0.102423	0.01954	221.1	0	0	1	0	1	0	0	19.7595	-7.5476	-19.6911	6.0172;
	96	188	0.010903	0.070421	0.01343	221.1	0	0	1	0	1	0	0	-4.7225	-1.2798	4.7249	-0.0558;
	97	200	0.01318	0.085125	0.01624	221.1	0	0	1	0	1	0	0	18.9668	-9.2486	-18.9084	8.0385;
	98	99	0.000643	0.030516	0	250	0	0	1	0	1	0	0	35.2206	6.3273	-35.2120	-5.9166;
	98	123	0.0047	0.033574	0.06121	402.36	0	0	1	0	1	0	0	-35.2206	-6.3273	35.2825	0.9274;
	99	142	0.007605	0.052982	0.00866	221.1	0	0	1	0	1	0	0	27.7386	3.7858	-27.6754	-4.1623;
	100	174	0.010698	0.074531	0.01218	221.1	0	0	1	0	1	0	0	-9.4100	14.3661	9.4417	-15.4245;
	100	179	0.007093	0.049413	0.00808	221.1	0	0	1	0	1	0	0	-17.7991	28.0033	17.8744	-28.3254;
	100	184	0.012745	0.08879	0.01451	221.1	0	0	1	0	1	0	0	-4.0272	2.6699	4.0306	-4.1811;
	101	110	0.00196	0.012657	0.00241	221.1	0	0	1	0	1	0	0	-2.7378	-0.0402	2.7379	-0.1856;
	101	117	0.005245	0.035833	0.0061	221.1	0	0	1	0	1	0	0	-10.5273	-5.0601	10.5348	4.5356;
	101	141	0.003144	0.020305	0.00387	221.1	0	0	1	0	1	0	0	-2.2616	-0.0383	2.2618	-0.3247;
	102	103	0.001709	0.054578	0	250	0	0	1	0	1	0	0	14.6275	-1.9874	-14.6237	2.1096;
	102	104	0.0021	0.087749	0	130	0	0	1	0	1	0	0	-27.2308	7.7010	27.2481	-6.9791;
	102	105	0.00097	0.059419	0	260	0	0	1	0	1	0	0	-59.3765	22.6387	59.4168	-20.1735;
	102	128	0.0027	0.019292	0.03517	402.36	0	0	1	0	1	0	0	18.9758	13.1101	-18.9597	-16.4065;
	103	106	0.007749	0.053987	0.00883	221.1	0	0	1	0	1	0	0	5.4797	2.0599	-5.4768	-2.8993;
	106	130	0.006991	0.047761	0.00813	221.1	0	0	1	0	1	0	0	4.0312	2.4853	-4.0295	-3.2617;
	107	113	0.006748	0.046101	0.00784	221.1	0	0	1	0	1	0	0	-21.4897	-4.5128	21.5240	4.0047;
	107	129	0.005168	0.035307	0.00601	221.1	0	0	1	0	1	0	0	-18.2083	-3.7530	18.2271	3.3133;
	107	192	0.003939	0.025441	0.00485	221.1	0	0	1	0	1	0	0	2.8155	-2.2460	-2.8150	1.7916;
	108	198	0.024792	0.160126	0.03055	221.1	0	0	1	0	1	0	0	3.1276	-0.8225	-3.1250	-2.0723;
	109	186	0.008774	0.059942	0.0102	221.1	0	0	1	0	1	0	0	-19.9462	7.0884	19.9873	-7.7974;
	110	193	0.003444	0.022243	0.00424	221.1	0	0	1	0	1	0	0	-9.4069	-1.7119	9.4102	1.3341;
	111	163	0.005281	0.034111	0.00651	221.1	0	0	1	0	1	0	0	-5.6141	-1.1938	5.6158	0.5295;
	111	175	0.00795	0.055386	0.00905	221.1	0	0	1	0	1	0	0	0.2377	-0.3363	-0.2377	-0.6013;
	112	113	0.002077	0.058615	0	350	0	0	1	0	1	0	0	49.6502	12.1281	-49.5940	-10.5421;
	112	114	0.06	0.434013	0	20	0	0	1	0	1	0	0	-0.6965	-0.0543	0.6968	0.0565;
	112	115	0.00128	0.062771	0	200	0	0	1	0	1	0	0	-50.0189	14.4522	50.0549	-12.6897;
	112	128	0.001295	0.009255	0.01687	402.36	0	0	1	0	1	0	0	1.0884	-7.0912	-1.0878	5.4654;
	113	192	0.005418	0.034995	0.00668	221.1	0	0	1	0	1	0	0	30.4353	3.7567	-30.3815	-4.0421;
	116	117	0.000517	0.034943	0	300	0	0	1	0	1	0	0	59.5839	5.6484	-59.5644	-4.3303;
	116	133	0.00389	0.027793	0.05067	402.36	0	0	1	0	1	0	0	-59.5839	-5.6484	59.7298	1.8620;
	117	132	0.011912	0.082984	0.01357	221.1	0	0	1	0	1	0	0	22.5810	-0.5826	-22.5168	-0.2494;
	117	162	0.01617	0.104442	0.01993	221.1	0	0	1	0	1	0	0	5.5207	-5.5855	-5.5118	3.7507;
	118	131	0.00718	0.046377	0.00885	221.1	0	0	1	0	1	0	0	18.8708	4.9296	-18.8417	-5.5783;
	118	134	0.011598	0.0808	0.01321	221.1	0	0	1	0	1	0	0	-21.4632	-3.4383	21.5205	2.5767;
	118	198	0.009487	0.064809	0.01103	221.1	0	0	1	0	1	0	0	0.1729	-2.1790	-0.1727	1.1327;
	121	122	0.000786	0.063023	0	200	0	0	1	0	1	0	0	17.4863	4.3282	-17.4837	-4.1241;
	121	178	0.008903	0.063604	0.11596	402.36	0	0	1	0	1	0	0	37.8435	-19.6267	-37.6993	8.9743;
	121	187	0.001063	0.007593	0.01384	402.36	0	0	1	0	1	0	0	-95.4421	53.3844	95.5698	-53.8545;
	123	124	0.000329	0.017481	0	400	0	0	1	0	1	0	0	116.9786	17.9174	-116.9305	-15.3598;
	123	125	0.00448	0.104562	0	170	0	0	1	0	1	0	0	-38.9449	-9.3911	39.0200	11.1441;
	123	126	0.00148	0.066043	0	170	0	0	1	0	1	0	0	-38.9950	-9.9475	39.0200	11.0649;
	123	127	0.001	0.031691	0	170	0	0	1	0	1	0	0	-39.0030	-10.0794	39.0200	10.6167;
	123	133	0.001459	0.010423	0.019	402.36	0	0	1	0	1	0	0	-31.8523	8.0989	31.8690	-9.7975;
	123	156	0.001117	0.007981	0.01455	402.36	0	0	1	0	1	0	0	-3.4659	2.4744	3.4662	-3.8650;
	124	193	0.006577	0.04582	0.00749	221.1	0	0	1	0	1	0	0	32.4917	4.3180	-32.4171	-4.5075;
	128	129	0.000753	0.044453	0	250	0	0	1	0	1	0	0	72.4726	21.3840	-72.4281	-18.7583;
	128	133	0.009554	0.068257	0.12444	402.36	0	0	1	0	1	0	0	-51.9801	9.8516	52.2721	-19.7303;
	130	144	0.022678	0.157988	0.02583	221.1	0	0	1	0	1	0	0	0.9419	2.3845	-0.9386	-4.8471;
	133	134	0.0002	0.013328	0	400	0	0	1	0	1	0	0	102.0353	-11.1811	-102.0132	12.6495;
	133	135	0.00043	0.033512	0	580	0	0	1	0	1	0	0	-133.8371	22.7525	133.9200	-16.2941;
	133	136	0.00043	0.027478	0	580	0	0	1	0	1	0	0	-133.8373	22.1376	133.9200	-16.8500;
	133	156	0.001958	0.013985	0.0255	402.36	0	0	1	0	1	0	0	21.7683	-6.0433	-21.7581	3.6768;
	134	140	0.010445	0.071357	0.01214	221.1	0	0	1	0	1	0	0	17.8780	3.8003	-17.8411	-4.7066;
	134	186	0.014463	0.093412	0.01782	221.1	0	0	1	0	1	0	0	36.6645	-10.2683	-36.4484	9.9474;
	138	139	0.026477	0.184455	0.03015	221.1	0	0	1	0	1	0	0	0.6778	3.3839	-0.6713	-6.2727;
	138	195	0.008728	0.05637	0.01075	221.1	0	0	1	0	1	0	0	-1.9104	-3.7377	1.9116	2.6876;
	141	148	0.01019	0.065817	0.01256	221.1	0	0	1	0	1	0	0	11.9029	2.2722	-11.8866	-3.3455;
	141	193	0.002896	0.018702	0.00357	221.1	0	0	1	0	1	0	0	-10.5850	-2.0742	10.5885	1.7610;
	144	162	0.006962	0.048504	0.00793	221.1	0	0	1	0	1	0	0	-4.6188	3.2628	4.6214	-4.0025;
	145	176	0.008799	0.060111	0.01023	221.1	0	0	1	0	1	0	0	-6.1200	-1.3978	6.1233	0.3762;
	145	185	0.010839	0.075509	0.01234	221.1	0	0	1	0	1	0	0	-4.5553	-1.6453	4.5576	0.4018;
	146	147	0.0025	0.10181	0	130.6	0	0	1	0	1	0	0	-34.9147	5.9748	34.9471	-4.6530;
	146	177	0.011064	0.07708	0.0126	221.1	0	0	1	0	1	0	0	22.4991	-2.5599	-22.4408	1.7501;
	149	150	0.000412	0.020251	0	400	0	0	1	0	1	0	0	62.9680	-10.1800	-62.9517	10.9845;
	149	151	0.02267	0.625521	0	20	0	0	1	0	1	0	0	-1.6193	-0.6055	1.6200	0.6238;
	149	152	0.00249	0.141687	0	100	0	0	1	0	1	0	0	-23.1560	6.2730	23.1700	-5.4767;
	149	153	0.00549	0.184603	0	100	0	0	1	0	1	0	0	-23.1390	6.5342	23.1700	-5.4921;
	149	154	0.00249	0.10294	0	100	0	0	1	0	1	0	0	-23.1561	6.0368	23.1700	-5.4612;
	149	155	0.00249	0.099835	0	100	0	0	1	0	1	0	0	-23.1561	6.0178	23.1700	-5.4598;
	150	185	0.013458	0.091934	0.01564	221.1	0	0	1	0	1	0	0	11.1413	0.7804	-11.1247	-2.2702;
	150	194	0.003138	0.021435	0.00365	221.1	0	0	1	0	1	0	0	36.2798	-13.3590	-36.2343	13.2938;
	156	157	0.000592	0.045654	0	300	0	0	1	0	1	0	0	18.2919	0.1883	-18.2898	-0.0286;
	160	161	0.00139	0.080288	0	180.2	0	0	1	0	1	0	0	0.0000	0.0000	0.0000	0.0000;
	160	181	0.004296	0.029345	0.00499	221.1	0	0	1	0	1	0	0	-7.5643	-3.6880	7.5672	3.2005;
	163	164	0.008207	0.11301	0	58.1	0	0	1	0	1	0	0	0.0000	-0.0000	0.0000	0.0000;
	163	165	0.0074	0.301657	0	65	0	0	1	0	1	0	0	-0.0000	-0.0000	0.0000	0.0000;
	163	166	0.016368	0.382075	0	42	0	0	1	0	1	0	0	0.0000	0.0000	0.0000	0.0000;
	163	167	0.010476	0.196499	0	42	0	0	1	0	1	0	0	-2.8191	-0.9966	2.8200	1.0136;
	163	168	0.018	0.490983	0	40	0	0	1	0	1	0	0	-0.0000	-0.0000	0.0000	0.0000;
	163	169	0.016368	0.396417	0	40	0	0	1	0	1	0	0	0.0000	0.0000	0.0000	0.0000;
	163	170	0.016368	0.374902	0	35.6	0	0	1	0	1	0	0	-2.8186	-0.9522	2.8200	0.9842;
	163	179	0.00579	0.039557	0.00673	221.1	0	0	1	0	1	0	0	-29.1144	7.0938	29.1648	-7.4467;
	171	190	0.009866	0.0674	0.01147	221.1	0	0	1	0	1	0	0	6.4143	0.4197	-6.4100	-1.5154;
	171	195	0.011644	0.081116	0.01326	221.1	0	0	1	0	1	0	0	-11.0968	-1.7525	11.1116	0.5505;
	172	180	0.015296	0.106558	0.01742	221.1	0	0	1	0	1	0	0	1.5134	-3.3092	-1.5122	1.5180;
	172	199	0.024005	0.155042	0.02958	221.1	0	0	1	0	1	0	0	-4.7929	2.3766	4.8018	-5.3537;
	173	174	0.015373	0.099293	0.01894	221.1	0	0	1	0	1	0	0	-9.5290	-1.0934	9.5425	-0.7864;
	173	175	0.008572	0.055363	0.01056	221.1	0	0	1	0	1	0	0	4.2197	-0.4183	-4.2182	-0.6666;
	174	188	0.017952	0.12264	0.02087	221.1	0	0	1	0	1	0	0	-20.6727	15.7294	20.7952	-17.0285;
	178	179	0.000495	0.036157	0	250	0	0	1	0	1	0	0	61.4540	-30.0009	-61.4311	31.6697;
	180	191	0.026393	0.183866	0.03006	221.1	0	0	1	0	1	0	0	-3.0862	-4.5064	3.0908	1.4075;
	180	199	0.012185	0.078698	0.01501	221.1	0	0	1	0	1	0	0	-11.4569	10.2374	11.4866	-11.5887;
	181	182	0.01099	0.297746	0	60.3	0	0	1	0	1	0	0	-5.2470	-0.5802	5.2500	0.6616;
	181	183	0.004627	0.114254	0	65	0	0	1	0	1	0	0	-7.9771	-0.0101	7.9800	0.0815;
	181	194	0.004395	0.028384	0.00542	221.1	0	0	1	0	1	0	0	-20.7721	-19.9815	20.8075	19.6546;
	187	188	0.001394	0.044762	0	400	0	0	1	0	1	0	0	64.8430	-14.0440	-64.7814	16.0230;
	187	189	0.0003	0.007815	0	740	0	0	1	0	1	0	0	-170.6568	42.6329	170.7500	-40.2043;
	195	196	0.00285	0.060038	0	87.7	0	0	1	0	1	0	0	0.0000	0.0000	0.0000	-0.0000;
	195	197	0.00285	0.191484	0	87.7	0	0	1	0	1	0	0	0.0000	0.0000	0.0000	-0.0000;
];

%% generator cost data
%	2	startup	shutdown	n	c(n-1)	...	c0
%	Using quadratic cost curves only
mpc.gencost = [
	2	0	0	3	0.002	19	236.12;
	2	0	0	3	0.002	19	236.12;
	2	0	0	3	0.002	19	236.12;
	2	0	0	3	0.002	19	236.12;
	2	0	0	3	0.002	19	236.24;
	2	0	0	3	0	0	0;
	2	0	0	3	0.002	19	236.13;
	2	0	0	3	0.002	19	236.74;
	2	0	0	3	0.002	19	236.74;
	2	0	0	3	0.002	19	236.74;
	2	0	0	3	0.002	19	236.74;
	2	0	0	3	0.002	19	236.74;
	2	0	0	3	0.002	19	236.74;
	2	0	0	3	0.002	23.157	606;
	2	0	0	3	0.002	23.146	603.6;
	2	0	0	3	0.002	23.252	627;
	2	0	0	3	0.002	23.252	627;
	2	0	0	3	0.002	23.152	604.8;
	2	0	0	3	0.002	23.164	607.5;
	2	0	0	3	0.002	23.173	609.45;
	2	0	0	3	0.002	19	236.48;
	2	0	0	3	0	0	0;
	2	0	0	3	0	0	0;
	2	0	0	3	0	0	0;
	2	0	0	3	0	0	0;
	2	0	0	3	0.002	19	610.14;
	2	0	0	3	0.002	19	610.14;
	2	0	0	3	0.002	19	610.14;
	2	0	0	3	0.002	19	1261.33;
	2	0	0	3	0.002	19	1261.33;
	2	0	0	3	0	0	0;
	2	0	0	3	0.002	19	236.14;
	2	0	0	3	0.002	19	253.01;
	2	0	0	3	0.002	19	253.01;
	2	0	0	3	0.002	19	253.01;
	2	0	0	3	0.002	19	253.01;
	2	0	0	3	0.002	24.07	807.9;
	2	0	0	3	0.002	23.211	618;
	2	0	0	3	0.002	23.306	639;
	2	0	0	3	0.002	23.194	614.1;
	2	0	0	3	0.002	23.194	614.1;
	2	0	0	3	0.002	23.194	614.1;
	2	0	0	3	0.002	23.194	614.1;
	2	0	0	3	0.002	23.194	614.1;
	2	0	0	3	0.002	19	236.47;
	2	0	0	3	0.002	19	236.71;
	2	0	0	3	0	6.71	1272.13;
	2	0	0	3	0.002	23.588	701.25;
	2	0	0	3	0.002	23.588	701.25;
];

%% generator fuel type
mpc.genfuel = {
	"coal";
	"coal";
	"coal";
	"coal";
	"coal";
	"wind";
	"coal";
	"coal";
	"coal";
	"coal";
	"coal";
	"coal";
	"coal";
	"ng";
	"ng";
	"ng";
	"ng";
	"ng";
	"ng";
	"ng";
	"coal";
	"wind";
	"wind";
	"wind";
	"wind";
	"coal";
	"coal";
	"coal";
	"coal";
	"coal";
	"wind";
	"coal";
	"coal";
	"coal";
	"coal";
	"coal";
	"ng";
	"ng";
	"ng";
	"ng";
	"ng";
	"ng";
	"ng";
	"ng";
	"coal";
	"coal";
	"nuclear";
	"ng";
	"ng";

};

%% summary data
mpc.summary_stats = [
%	Nbus	Ngen	NgenON	Nline	NlineON	Nload	GenPCap	GenTotalP	GenTotalQ	GenPCapON	LoadTotP	LoadTotalQ	LoadShedP	LoadShedQ
	200	49	38	245	245	108	3379.59	942.737782	-117.527965	2997.49	937.497744	267.17384	0	0
];

%% solve time
mpc.solve_time = 0;
